!rks d4 def2-tzvpp def2-tzvpp/c rijcosx tightscf defgrid3 nopop 
        

        %pal nprocs 12 end
        %maxcore 8000

        %mp2
  doscs true
  ps 0.5922
  pt 0.0636
end
%method
 exchange x_pbe
 correlation c_p86
 scalhfx 0.69
 scaldfx 0.31
 scalggac 0.4210
 scalldac 0.4210
 scalmp2c 1.0
 ldaopt c_vwn5
 d3s6 0.5132
 d3s8 0.0
 d3a1 0.44
 d3a2 3.60
end

        

        *xyz 0 1
        O 3.21806143 1.18329214 -0.89697084
C 2.19524764 1.84749942 -1.09785976
C 1.80519438 2.99223795 -0.31897514
C 0.62581388 3.69096932 -0.61390011
C 2.60966624 3.43741455 0.76879104
C 2.21934791 4.54249142 1.51209483
C 0.22817531 4.79054398 0.11741956
C 1.03963659 5.21374222 1.19013832
O 3.74352695 2.80489439 1.09101928
H 1.51154084 1.56625257 -1.92600581
H 0.01341958 3.34804118 -1.44532901
H 2.82828470 4.88469337 2.34154901
H -0.68804843 5.30730331 -0.13655936
H 3.84008088 2.05356806 0.45007358
C -0.51311855 8.13312254 2.74222036
C -0.45078862 7.02258283 1.71843771
O 0.75005080 6.27493717 1.97604479
H -1.41748589 8.72871225 2.58514533
H 0.35616165 8.79053705 2.65364966
H -0.53835466 7.72322422 3.75564302
H -0.41803703 7.42756476 0.69689869
H -1.32189821 6.35728519 1.80369965
        *
        