81
      -1933.27665895, 
  C  4.73801852 -3.58773860 -0.20398181
  C  5.48077945 -3.14588325 -1.31519368
  C  3.49809134 -3.04393672  0.03673518
  C  2.95212069 -2.03511844 -0.78345231
  C  3.70828850 -1.59456087 -1.90809801
  C  4.96798366 -2.17799437 -2.16349847
  O  3.26735847 -0.62807962 -2.67474886
  C  1.53959819 -1.65731581 -0.66509832
  N  0.85056546 -2.20982023  0.43371645
  N  1.13700281  0.11335026 -0.19474326
  C -0.60892838 -2.19485975  0.28176732
  C -1.17333420 -0.77558793  0.41055486
  C -0.33409212  0.20579651 -0.41436184
  C  1.29105522 -1.47947760  1.64059086
  C  1.49719421  0.01221624  1.23392758
  N -2.53475301 -0.72131835 -0.07722306
  C -3.46931588 -0.33891865  0.72782613
  C -4.84425471 -0.23671685  0.32789975
  C -5.82573099  0.18036236  1.24749997
  C -5.25089841 -0.53477857 -0.99921568
  C -7.14641374  0.30235089  0.89046200
  C -6.59097818 -0.41170847 -1.37280249
  C -7.52973493  0.00447489 -0.43226594
  O -4.37066120 -0.93492944 -1.92391126
  H  5.14156108 -4.37757457  0.41987110
  H  2.90147254 -3.46161978  0.83995885
  H  5.50928790 -1.80258688 -3.02309396
  H  3.23837417  0.33910608 -1.89735094
  H  1.00323615 -1.67843585 -1.61699604
  H -1.05726465 -2.85012065  1.03882882
  H -0.86405315 -2.60648490 -0.70129550
  H -1.13506141 -0.46682842  1.47031318
  H -0.66269563  1.22277375 -0.17105506
  H -0.52350897  0.03534091 -1.48220717
  H  2.23253020 -1.88589277  2.01473381
  H  0.54110692 -1.60252742  2.42727122
  H  2.54674562  0.29710511  1.32960027
  H  0.89338420  0.69989818  1.83589368
  H -3.23995867 -0.06491927  1.77105461
  H -5.52097697  0.41151189  2.26578495
  H -7.90462655  0.62342120  1.59557351
  H -6.85262574 -0.64894865 -2.39635835
  H -3.47409673 -0.96051309 -1.47523545
  O  3.14436837  1.14008438 -1.07727416
  C  1.81374837  1.34476839 -0.94611967
  C  1.50334332  2.63128356 -0.21872775
  C  0.37329403  3.38407610 -0.52857166
  C  2.38114024  3.14053575  0.76770089
  C  2.05353772  4.29487487  1.46992860
  C  0.03768056  4.55146120  0.15048982
  C  0.88251482  4.99139856  1.17515296
  O  3.55906204  2.54260523  1.05596247
  H  1.28420655  1.31972982 -1.91594245
  H -0.26785030  3.06101585 -1.34638426
  H  2.73405937  4.67397337  2.22474130
  H -0.85061107  5.10022941 -0.13497486
  H  3.73227020  1.91431516  0.30973803
  C -0.48283733  8.07653550  2.58495242
  C -0.49161939  6.90135010  1.63244911
  O  0.66476664  6.10859087  1.92320544
  H -1.35321936  8.71305110  2.39769528
  H  0.42199436  8.67535171  2.44918582
  H -0.51922446  7.73337860  3.62272199
  H -0.45367172  7.24277019  0.58707958
  H -1.40048392  6.29460200  1.76367991
  C -10.80909118  0.14539285 -2.03326601
  C -9.32041729 -0.11690325 -2.02343172
  O -8.84814976  0.15650345 -0.69398235
  H -11.21180694 -0.05184688 -3.03124261
  H -11.01995909  1.18638671 -1.77290690
  H -11.32122198 -0.50375053 -1.31746169
  H -8.79735309  0.53566840 -2.73722704
  H -9.09909974 -1.16251229 -2.28153434
  C  8.79736269 -4.11634418 -2.50281022
  C  7.50967963 -3.32625850 -2.57284887
  O  6.69647152 -3.73729542 -1.46723003
  H  9.45236440 -3.83339228 -3.33261781
  H  8.59646955 -5.18943759 -2.56875335
  H  9.32145244 -3.91845068 -1.56319567
  H  6.97627247 -3.51953799 -3.51521916
  H  7.70373499 -2.24562853 -2.50449488