22
       -574.53173177 , 
  O -3.01707738 -1.25690977 -1.59283463
  C -1.91143074 -1.76941615 -1.64542823
  C -1.58591304 -3.06147485 -1.03239752
  C -2.57181103 -3.77815458 -0.34562200
  C -0.29636502 -3.62497481 -1.10801894
  C -0.02120277 -4.84952707 -0.51723694
  C -2.32112389 -4.99927906  0.25087522
  C -1.02832879 -5.54132077  0.16127277
  O  0.66306908 -2.92704131 -1.77787474
  O -0.64869403 -6.73445834  0.67780132
  C -1.58420250 -7.49076004  1.46873649
  H -1.08035677 -1.26396530 -2.17665765
  H -3.56128921 -3.33249204 -0.29492655
  H  0.96935715 -5.29404744 -0.57151101
  H -3.11704353 -5.51377554  0.77414919
  H  1.49055676 -3.42121523 -1.75330249
  C -1.69716397 -6.95171944  2.88281913
  H -1.16818591 -8.50241658  1.47364849
  H -2.55641664 -7.53327980  0.96129641
  H -2.08077470 -5.92783040  2.89691885
  H -0.71799592 -6.95862367  3.37019815
  H -2.37758458 -7.58167799  3.46539731