61
      -1359.93271169 , 
  C -3.21726276  4.38570892  1.86430448
  C -4.49475316  3.95099547  1.49486252
  C -2.11346672  3.89540035  1.19083314
  C -2.22017177  2.97748070  0.14265503
  C -3.50263350  2.55301481 -0.20297333
  C -4.63980636  3.03296102  0.45500370
  O -5.52397066  4.46643829  2.22532596
  C -6.87218896  4.16713078  1.84340175
  O -3.62257020  1.63353617 -1.21628837
  C -0.98132327  2.46459440 -0.54193993
  N -0.15129820  1.64733316  0.35397279
  N  0.13128592 -1.17418092 -0.82089519
  C  1.16516609  1.41852302 -0.25042650
  C  1.92931999  0.26037666  0.39062019
  C  1.36311757 -1.14791343 -0.05318062
  C -0.83206050  0.45539192  0.86245263
  C -1.06832191 -0.69278595 -0.13016286
  N  3.31824221  0.34906668 -0.02656640
  C  4.25052245  0.30727726  0.85897380
  C  5.64836610  0.35627346  0.50822736
  C  6.63364532  0.31600260  1.50167776
  C  6.06617404  0.44565693 -0.85018217
  C  7.98424274  0.35820657  1.20562340
  C  7.42086591  0.48804195 -1.15775083
  C  8.37455140  0.44719670 -0.14214285
  O  5.17488644  0.48911926 -1.84799367
  O  9.66390403  0.52076578 -0.56641374
  C  10.72845905  0.37696609  0.38594831
  H -3.11999793  5.09900144  2.67547132
  H -1.11826443  4.21980354  1.48430427
  H -5.61730910  2.67865264  0.14293219
  C -7.32579605  4.98572288  0.64642645
  H -7.46485532  4.42349432  2.72692750
  H -6.98911547  3.08742183  1.67333939
  H -4.55373453  1.41485627 -1.33254362
  H -0.36559809  3.32305583 -0.84713266
  H  1.76418704  2.33429334 -0.13714168
  H  1.10410670  1.22927565 -1.34129379
  H  1.86086838  0.36015174  1.48813540
  H  1.23107126 -1.76823112  0.84355653
  H  2.14271044 -1.62971278 -0.65530818
  H -1.80030869  0.77403001  1.27115800
  H -0.26102059  0.07554103  1.71951957
  H -1.80188019 -0.39439878 -0.88803288
  H -1.52317685 -1.52528054  0.43282073
  H  4.01123297  0.23521706  1.93332674
  H  6.32055067  0.24713957  2.54140559
  H  8.70920198  0.32111702  2.00828230
  H  7.73704112  0.55787168 -2.19274914
  H  4.26613388  0.44721542 -1.41803249
  C  10.95813302 -1.07392614  0.77104149
  H  10.54298373  1.01263282  1.26208970
  H  11.60442435  0.77864599 -0.13241621
  H -8.37202203  4.75916915  0.41433174
  H -6.72241607  4.77618988 -0.24121873
  H -7.24450132  6.05357775  0.86869687
  H  11.81214639 -1.14683450  1.45295996
  H  11.17448113 -1.67059686 -0.11977519
  H  10.08368221 -1.50407878  1.26713389
  H -1.25276422  1.93128630 -1.47054220
  H  0.25569392 -0.68701642 -1.69844047