22
       -574.54637358 , 
  O -0.97571913 -0.60722986 -2.91483991
  C -0.92923739 -1.65205718 -2.25533177
  C -2.07981356 -2.31226914 -1.70024816
  C -1.94206416 -3.49622004 -0.96117851
  C -3.38498091 -1.77525121 -1.88991909
  C -4.48656335 -2.42394074 -1.34919300
  C -3.02909435 -4.14920657 -0.42027448
  C -4.31367729 -3.59983647 -0.61912751
  O -3.57074478 -0.64846155 -2.58581530
  O -5.45426976 -4.13110243 -0.12239650
  C -5.41298694 -5.39427854  0.56664253
  H  0.05130055 -2.13560039 -2.06198095
  H -0.94405993 -3.90523247 -0.81765881
  H -5.48158105 -2.01641218 -1.48960199
  H -2.88359658 -5.06255951  0.14158188
  H -2.67157654 -0.34871930 -2.88130185
  C -5.32561567 -6.56269942 -0.39760699
  H -6.35545529 -5.42182552  1.12105951
  H -4.59652466 -5.39685408  1.30010339
  H -6.17178207 -6.54502264 -1.09035854
  H -5.35415002 -7.50511210  0.15945198
  H -4.40240264 -6.53730843 -0.98324752