83
      -1934.49338830 , 
  C -3.74618396  3.22199637  2.10126284
  C -4.76660342  2.71032246  1.29156404
  C -2.44346196  3.21914749  1.63377111
  C -2.10373612  2.72002534  0.37434660
  C -3.14208261  2.23691236 -0.42808785
  C -4.46781846  2.22787965  0.01800718
  O -6.01342535  2.71494307  1.84556883
  C -7.12303753  2.25544715  1.06454002
  O -2.82184952  1.77667245 -1.67256032
  C -0.67259600  2.64704726 -0.07748514
  N  0.16163264  1.76037585  0.75887826
  N  0.31103959 -0.65888875 -0.98603314
  C  1.51203316  1.67838407  0.17716033
  C  2.23779065  0.35613496  0.43517878
  C  1.64735823 -0.81893860 -0.43214659
  C -0.45774095  0.49030932  1.13279756
  C -0.76729712 -0.48238806 -0.01439615
  N  3.63397575  0.52566269  0.06719991
  C  4.55304591  0.20428687  0.90823776
  C  5.95610487  0.32090785  0.59828009
  C  6.92544813 -0.03292423  1.54417274
  C  6.39544173  0.79652370 -0.67029325
  C  8.28062041  0.06333446  1.28512484
  C  7.75526294  0.89604466 -0.94024713
  C  8.69264521  0.53606329  0.02635389
  O  5.52035837  1.15258501 -1.61786031
  O  9.98919322  0.70066842 -0.34641379
  C  11.03627569  0.26703671  0.53500092
  H -3.99778931  3.60235418  3.08538096
  H -1.64454006  3.59207050  2.27040769
  H -5.23712558  1.84931884 -0.64674838
  C -7.61503300  3.30977750  0.08707031
  H -7.89881823  2.03079001  1.80347489
  H -6.86694827  1.31232234  0.56079202
  H -3.57387474  1.32085513 -2.08154895
  H -0.21756713  3.64858499 -0.03290441
  H  2.13077186  2.49599485  0.57802368
  H  1.48879868  1.82941563 -0.92019220
  H  2.16904365  0.10715641  1.50700879
  H  1.67422153 -1.74007372  0.16699556
  H  2.33853410 -0.96748133 -1.27091100
  H -1.39311179  0.70774712  1.66322921
  H  0.18938395  0.00252455  1.87091031
  H -1.64752838 -0.13507398 -0.56513612
  H -1.03412545 -1.46069586  0.41836702
  H  4.29825852 -0.17405229  1.91270183
  H  6.59564552 -0.39666366  2.51511117
  H  8.99303073 -0.22455705  2.04725046
  H  8.08801310  1.26084910 -1.90575956
  H  4.60449129  1.00977300 -1.22704328
  C  11.23801448 -1.23722135  0.48497564
  H  10.84556829  0.62509147  1.55545874
  H  11.92630925  0.78531499  0.16546847
  O -1.69775506 -0.91635587 -4.11868893
  C -1.61919386 -1.81559804 -3.27057228
  C -2.66840999 -2.10624958 -2.32594134
  C -2.52427848 -3.12229510 -1.37410224
  C -3.85479213 -1.32724317 -2.30804624
  C -4.84000289 -1.57258909 -1.36652748
  C -3.49877262 -3.38262216 -0.43144767
  C -4.66510945 -2.59295106 -0.42826708
  O -4.02993333 -0.32648618 -3.19591401
  O -5.67916785 -2.72579550  0.45618717
  C -5.64497114 -3.79061897  1.42515250
  H -0.71140022 -2.44312884 -3.21248519
  H -1.60585496 -3.70514483 -1.37570625
  H -5.74802682 -0.97951069 -1.35312040
  H -3.34918067 -4.17623834  0.28897088
  H -3.20162873 -0.32475252 -3.76331716
  C -6.05125108 -5.12135555  0.81982919
  H -6.36568776 -3.47668995  2.18552309
  H -4.65729676 -3.83272703  1.90177937
  H -8.48601662  2.93344206 -0.46035797
  H -6.84395526  3.58271958 -0.63855944
  H -7.91028018  4.21432250  0.62662643
  H  12.07606528 -1.52161950  1.13032589
  H  11.46546275 -1.55351625 -0.53709775
  H  10.34707466 -1.77574811  0.81981960
  H -7.05317652 -5.05036808  0.38704626
  H -6.06501012 -5.89195774  1.59775504
  H -5.36009250 -5.43904350  0.03421286
  H -0.64822394  2.34338844 -1.13823412
  H  0.29906389  0.10370600 -1.65419043