83
      -1934.44569151 , 
  C -3.62637419  4.17322674  1.99134882
  C -4.73262186  3.60305563  1.34952437
  C -2.36303496  3.99443908  1.45578436
  C -2.14797205  3.25739413  0.28873568
  C -3.26914937  2.71531666 -0.34919042
  C -4.55681897  2.87875964  0.17028230
  O -5.93254797  3.80683623  1.96306062
  C -7.13190183  3.35784542  1.31759555
  O -3.06015615  2.04074316 -1.51688925
  C -0.76324698  2.99368578 -0.22895109
  N  0.04307000  2.13226138  0.66670065
  N -0.18421983 -0.45959248 -0.65441404
  C  1.32217436  1.81161663  0.01461627
  C  1.92899174  0.47055707  0.44216480
  C  1.16960034 -0.75350791 -0.15031522
  C -0.66229468  1.01955205  1.29112423
  C -1.17860114 -0.08818046  0.37063901
  N  3.29816912  0.41398250 -0.04871141
  C  4.25912490  0.28678761  0.79900479
  C  5.64102536  0.23974548  0.40000619
  C  6.65057123  0.09760924  1.36108114
  C  6.02341371  0.34001355 -0.96845757
  C  7.98968766  0.05148397  1.02372764
  C  7.36739432  0.29493220 -1.31721366
  C  8.34539430  0.15511329 -0.33387419
  O  5.11161585  0.47886925 -1.93822233
  O  9.62109680  0.14986770 -0.79563076
  C  10.70518132 -0.06908424  0.12173535
  H -3.78431954  4.74179507  2.90140438
  H -1.50059772  4.41836213  1.96510089
  H -5.39326528  2.45223073 -0.37248528
  C -7.56626546  4.29081253  0.20013113
  H -7.87878263  3.34697804  2.11740516
  H -7.01037603  2.32342573  0.96726109
  H -3.74954600  1.38212720 -1.69267288
  H -0.21584405  3.94303230 -0.33011628
  H  2.05570560  2.59942065  0.24303976
  H  1.22457094  1.79563114 -1.08737698
  H  1.92866125  0.41268876  1.54254974
  H  1.12922112 -1.56545284  0.59128168
  H  1.75259473 -1.11147123 -1.00653168
  H -1.52765353  1.42224016  1.82925570
  H -0.01324005  0.58979084  2.06243136
  H -2.06818394  0.25031220 -0.16857591
  H -1.46011157 -0.97242513  0.96257151
  H  4.05646532  0.21177272  1.88080155
  H  6.36419264  0.02083785  2.40788197
  H  8.73395320 -0.06228247  1.80104212
  H  7.65714580  0.37539625 -2.35907554
  H  4.21520053  0.49488362 -1.49234783
  C  10.86750776 -1.53745795  0.47202403
  H  10.57858799  0.55874645  1.01351400
  H  11.58510672  0.29601679 -0.41623823
  O -0.88951864 -0.47859395 -2.72422489
  C -0.73548793 -1.46278935 -1.75051212
  C -1.97483723 -2.20580017 -1.36940761
  C -1.89523575 -3.38579198 -0.63686253
  C -3.25604905 -1.71960646 -1.71483357
  C -4.39563642 -2.39932616 -1.29808323
  C -3.02318913 -4.07727858 -0.20994946
  C -4.28445773 -3.56581403 -0.54249696
  O -3.39922617 -0.59608822 -2.45005732
  O -5.47196479 -4.12313143 -0.16984225
  C -5.46820304 -5.40360627  0.47563161
  H  0.09283109 -2.16766083 -1.94737715
  H -0.91150035 -3.78186475 -0.38822117
  H -5.37700300 -2.02693741 -1.57234028
  H -2.90695479 -4.99451269  0.35314411
  H -2.44574297 -0.34758944 -2.72281534
  C -5.24736963 -6.53933646 -0.50875218
  H -6.46183232 -5.47784734  0.92835592
  H -4.73267907 -5.41728473  1.29154404
  H -8.50775680  3.93788139 -0.23429651
  H -6.81973172  4.34546158 -0.59695065
  H -7.72273940  5.30019592  0.59157976
  H  11.73730341 -1.66922483  1.12435599
  H  11.02414376 -2.12679970 -0.43606716
  H  9.98754630 -1.93130779  0.98824074
  H -6.02265642 -6.52501898 -1.28010258
  H -5.29567994 -7.50093951  0.01364343
  H -4.27382798 -6.46280987 -1.00096240
  H -0.83369555  2.56176435 -1.24050997
  H -0.33714755  0.17091681 -1.72936755