81
      -1933.28911524 , 
  C  5.09109272 -3.75182324  0.34269581
  C  5.78534911 -3.39851218 -0.85547050
  C  3.78513472 -3.39918723  0.49699596
  C  3.08975691 -2.69571339 -0.52749988
  C  3.81452627 -2.26728400 -1.72480038
  C  5.16801369 -2.70506149 -1.87005977
  O  3.26948298 -1.48788649 -2.55921826
  C  1.71225409 -2.49847716 -0.56091183
  N  0.86940180 -2.47955543  0.48920463
  N  0.96725850  0.08536297 -0.05500016
  C -0.56825370 -2.38423123  0.19760867
  C -1.19483036 -1.01418421  0.52309176
  C -0.48183544  0.17116263 -0.15080964
  C  1.28774213 -1.71165878  1.66746121
  C  1.46598687 -0.19527766  1.28198874
  N -2.56710815 -1.04553019  0.05475034
  C -3.51598169 -0.72978025  0.87005219
  C -4.89732054 -0.71497488  0.47575849
  C -5.90166360 -0.36865372  1.39932448
  C -5.28774604 -1.04621800 -0.84852386
  C -7.23004535 -0.34675024  1.04950140
  C -6.63578215 -1.02713044 -1.21382793
  C -7.59765401 -0.67969412 -0.26909903
  O -4.38560380 -1.38349675 -1.77652224
  H  5.61772215 -4.33903921  1.08685108
  H  3.24531401 -3.75089106  1.37148871
  H  5.68310980 -2.39705860 -2.77164102
  H  2.95113158 -0.07664474 -1.69886388
  H  1.26569987 -2.38157731 -1.54861567
  H -1.10399291 -3.15031218  0.77555205
  H -0.72543398 -2.60930599 -0.86243291
  H -1.17503293 -0.85998663  1.61595740
  H -0.88794360  1.09355888  0.31197236
  H -0.76316375  0.18671418 -1.21315976
  H  2.22991938 -2.09192420  2.05964272
  H  0.53611123 -1.85041876  2.44976747
  H  2.53290537  0.03850465  1.29466270
  H  0.98499480  0.42861509  2.05588940
  H -3.29729483 -0.45427397  1.91510784
  H -5.60934436 -0.11263689  2.41529923
  H -8.00602021 -0.08067837  1.75817186
  H -6.88425811 -1.28775160 -2.23495253
  H -3.48592892 -1.33758697 -1.33032886
  O  2.97049902  0.74930210 -1.13916430
  C  1.66933854  1.15762147 -0.79591621
  C  1.74183896  2.46745352 -0.03684108
  C  0.66503532  3.34684848 -0.10039950
  C  2.82148576  2.81363503  0.80577570
  C  2.76726546  3.96732491  1.57939561
  C  0.59471274  4.51075496  0.66088055
  C  1.65798838  4.80860597  1.51713982
  O  3.94697406  2.05983133  0.90189748
  H  1.06117423  1.31411633 -1.70334750
  H -0.15194514  3.12449418 -0.78389809
  H  3.60670977  4.22450428  2.21649173
  H -0.26440147  5.16236335  0.56506001
  H  3.91986907  1.41749203  0.16019794
  C  0.95317592  7.96756191  3.21901041
  C  0.63087505  6.84055518  2.26238493
  O  1.71686335  5.91196268  2.31821314
  H  0.14605609  8.70663527  3.20966888
  H  1.88356659  8.46400068  2.92913592
  H  1.06614261  7.58783889  4.23850424
  H  0.51658396  7.21799888  1.23478351
  H -0.30546124  6.33738871  2.54898492
  C -10.88943411 -0.83118558 -1.84420226
  C -9.38364627 -0.96440249 -1.84392858
  O -8.92620809 -0.63208780 -0.52313073
  H -11.28164261 -1.07723204 -2.83563813
  H -11.18771060  0.19144380 -1.59686232
  H -11.33808039 -1.51111347 -1.11458504
  H -8.92421264 -0.28077611 -2.57239877
  H -9.07589315 -1.99122466 -2.08903041
  C  9.23330871 -4.11685612 -1.81712654
  C  7.85896616 -3.52905334 -2.04292141
  O  7.07497797 -3.81142800 -0.87284452
  H  9.86625294 -3.92126479 -2.68807027
  H  9.17210638 -5.19865836 -1.66834468
  H  9.70583641 -3.67051261 -0.93759774
  H  7.37251298 -3.97524468 -2.92208528
  H  7.90949063 -2.44093854 -2.19177810