81
      -1933.27004088 , 
  C  4.86183202 -3.82051241  0.03986078
  C  5.68796042 -3.24476929 -0.95337113
  C  3.57683642 -3.36748166  0.19789683
  C  3.06639690 -2.34307359 -0.62680192
  C  3.92215570 -1.73182548 -1.59438331
  C  5.22758918 -2.21731681 -1.76657030
  O  3.49375123 -0.69686528 -2.28394737
  C  1.69412746 -1.98223953 -0.69280979
  N  0.79170175 -2.05224353  0.26930138
  N  0.33448732  0.53166935  0.71489353
  C -0.63390528 -2.09087648 -0.09390845
  C -1.53040280 -1.08952244  0.64263795
  C -1.05995413  0.36937143  0.43770244
  C  1.13084405 -1.69178450  1.64665607
  C  0.87480951 -0.13164055  1.86110579
  N -2.86673488 -1.24060324  0.11095925
  C -3.87146778 -1.16292731  0.91884724
  C -5.23305412 -1.22234245  0.46434769
  C -6.29756546 -1.15456510  1.38284665
  C -5.54422879 -1.34792700 -0.91498708
  C -7.60919520 -1.20672123  0.97652984
  C -6.87404537 -1.39961680 -1.33853564
  C -7.89714656 -1.32951785 -0.39669398
  O -4.58137115 -1.41992897 -1.84169229
  H  5.25653946 -4.63603230  0.63525242
  H  2.92195710 -3.85623076  0.91424305
  H  5.85163568 -1.72634955 -2.50253185
  H  2.86048188 -0.08885350 -1.58633100
  H  1.30343653 -1.76588458 -1.68906426
  H -1.01164478 -3.10517346  0.10045399
  H -0.71795975 -1.91453127 -1.17253466
  H -1.51820790 -1.31397702  1.72432134
  H -1.71267158  1.00350821  1.07257814
  H -1.26213852  0.65605162 -0.60365683
  H  2.18423697 -1.91258203  1.81506219
  H  0.53236526 -2.29809631  2.33616197
  H  1.83370693  0.32849262  2.11831236
  H  0.21077626 -0.00835203  2.72990971
  H -3.71831448 -1.04994672  2.00480471
  H -6.06640414 -1.05676102  2.44123116
  H -8.43104435 -1.15387491  1.68147812
  H -7.06090555 -1.49473018 -2.40083154
  H -3.70761157 -1.36395230 -1.34885137
  O  2.36514330  0.38732939 -0.47067598
  C  1.26386855  1.19647918 -0.21993560
  C  1.70176886  2.55012992  0.33759383
  C  0.83843211  3.63495776  0.25375507
  C  2.93659746  2.73825589  0.99525594
  C  3.25089728  3.97278813  1.55828701
  C  1.13438299  4.87920329  0.80493037
  C  2.35586125  5.03570296  1.46775199
  O  3.84365212  1.73905440  1.10528123
  H  0.66519213  1.38556718 -1.13220036
  H -0.11398171  3.50414103 -0.25864154
  H  4.20424084  4.10817417  2.05808037
  H  0.42724833  5.69316085  0.70670416
  H  3.49302436  1.02316249  0.50033511
  C  2.59267758  8.47717318  2.68688558
  C  1.90405427  7.33307757  1.97490688
  O  2.77036449  6.20088580  2.05290196
  H  1.96331686  9.37196418  2.65201181
  H  3.55037268  8.70607992  2.21057862
  H  2.77931723  8.22269734  3.73426244
  H  1.71275450  7.58604042  0.92054935
  H  0.93859393  7.09976702  2.45029541
  C -11.10136527 -1.49364549 -2.14220442
  C -9.59062544 -1.48034122 -2.08742310
  O -9.21482804 -1.37121814 -0.70552448
  H -11.43254421 -1.57587370 -3.18184564
  H -11.51187021 -0.57283781 -1.71866573
  H -11.50118353 -2.34339363 -1.58170537
  H -9.18017909 -0.62638066 -2.64544147
  H -9.17041301 -2.40500259 -2.50923344
  C  9.13831071 -4.01143239 -1.87002869
  C  7.84161153 -3.24641327 -2.00492587
  O  6.93310323 -3.76934994 -1.02131867
  H  9.86215828 -3.64238166 -2.60286278
  H  8.97873776 -5.07887354 -2.04649819
  H  9.56097938 -3.88280705 -0.86963052
  H  7.40585040 -3.37283306 -3.00637129
  H  7.99282418 -2.17247171 -1.82512579