81
      -1933.26998597, 
  C  4.85599701 -3.84231739  0.01595550
  C  5.68636812 -3.25577463 -0.96733359
  C  3.57518486 -3.38061747  0.18378095
  C  3.07362541 -2.33649863 -0.62116838
  C  3.93488470 -1.71315249 -1.57595182
  C  5.23570924 -2.20718802 -1.75871783
  O  3.51533023 -0.66075180 -2.24389463
  C  1.70336992 -1.96633125 -0.68305639
  N  0.79863269 -2.05154279  0.27610474
  N  0.33731538  0.52932206  0.75934660
  C -0.62593718 -2.08591545 -0.09047552
  C -1.52491788 -1.09709995  0.65946488
  C -1.05631350  0.36539358  0.47684637
  C  1.13585611 -1.70925476  1.65833993
  C  0.87852014 -0.15219097  1.89460114
  N -2.85967059 -1.24164403  0.12210382
  C -3.86702045 -1.18026018  0.92808344
  C -5.22698871 -1.23543584  0.46809616
  C -6.29476677 -1.18606979  1.38396668
  C -5.53321967 -1.33845338 -0.91424513
  C -7.60488090 -1.23492094  0.97234427
  C -6.86147451 -1.38660467 -1.34313563
  C -7.88792164 -1.33527285 -0.40373258
  O -4.56707911 -1.39207454 -1.83874283
  H  5.24341981 -4.67302993  0.59491387
  H  2.91611584 -3.87684337  0.89114372
  H  5.86395199 -1.70746205 -2.48516173
  H  2.87935435 -0.06612093 -1.53545698
  H  1.31505995 -1.73362570 -1.67665680
  H -1.00311899 -3.10348423  0.08713849
  H -0.70826264 -1.89295847 -1.16642848
  H -1.51481561 -1.33773397  1.73768488
  H -1.71137448  0.98926766  1.11894182
  H -1.25736536  0.66633849 -0.56059682
  H  2.18940629 -1.93159917  1.82427825
  H  0.53744966 -2.32524810  2.33929338
  H  1.83670566  0.30489277  2.15953060
  H  0.21359194 -0.04191729  2.76432748
  H -3.71754877 -1.08529940  2.01628336
  H -6.06746537 -1.10523477  2.44462005
  H -8.42922197 -1.19584751  1.67526454
  H -7.04451621 -1.46440880 -2.40750342
  H -3.69514650 -1.34245477 -1.34186494
  O  2.37303924  0.38514591 -0.41678538
  C  1.26744448  1.19188942 -0.17707535
  C  1.69724884  2.55247695  0.36911874
  C  0.83428483  3.63545784  0.26183714
  C  2.92538007  2.75033084  1.03620071
  C  3.23360985  3.99236754  1.58545069
  C  1.12411190  4.88722223  0.79919837
  C  2.33899228  5.05356256  1.47148509
  O  3.83277513  1.75359068  1.16735990
  H  0.67229531  1.37108708 -1.09363571
  H -0.11252197  3.49742791 -0.25896339
  H  4.18234832  4.13541432  2.09178636
  H  0.41763619  5.69935620  0.68276036
  H  3.49209719  1.03152771  0.56548815
  C  2.56674613  8.51391594  2.63736555
  C  1.88360515  7.35868693  1.93821340
  O  2.74785907  6.22711454  2.04360537
  H  1.93836298  9.40844823  2.58238008
  H  3.52880698  8.73441155  2.16593609
  H  2.74395436  8.27647922  3.69027401
  H  1.70274323  7.59388455  0.87790636
  H  0.91342369  7.13429836  2.40822818
  C -11.08576935 -1.47845427 -2.16265450
  C -9.57526615 -1.46214925 -2.10248409
  O -9.20443626 -1.37535766 -0.71768479
  H -11.41325892 -1.54415656 -3.20464351
  H -11.50024745 -0.56598465 -1.72506964
  H -11.48514241 -2.33850697 -1.61792142
  H -9.16513890 -0.59785868 -2.64466446
  H -9.15129438 -2.37849222 -2.53833624
  C  9.11920165 -4.05462665 -1.92166694
  C  7.83481768 -3.26498129 -2.02929481
  O  6.92549396 -3.79284125 -1.04916304
  H  9.84341823 -3.68211131 -2.65238977
  H  8.93977004 -5.11511817 -2.11988672
  H  9.55217987 -3.95518892 -0.92239070
  H  7.38888329 -3.36316365 -3.02941793
  H  8.00572334 -2.19767928 -1.82879756