81
      -1933.30098792 , 
  C  4.51831640 -3.90754138 -0.39683379
  C  5.32558106 -3.30878268 -1.36748530
  C  3.24972574 -3.40695218 -0.15800363
  C  2.74515025 -2.29547360 -0.84373414
  C  3.56473737 -1.72040297 -1.82291712
  C  4.84202234 -2.21726158 -2.08487962
  O  3.12431503 -0.68225839 -2.60965805
  C  1.31438242 -1.83396735 -0.64286238
  N  0.68777127 -2.47921182  0.53398552
  N  1.17786717 -0.37548516 -0.36523297
  C -0.76839304 -2.29192957  0.43914700
  C -1.19684469 -0.80596930  0.39654410
  C -0.24049908 -0.01775523 -0.52765436
  C  1.24899268 -1.69204682  1.66061799
  C  1.60430905 -0.29525978  1.04722454
  N -2.55109264 -0.70531304 -0.09208065
  C -3.44928177 -0.11429557  0.61996013
  C -4.82387540 -0.02277088  0.20222652
  C -5.77655736  0.63258462  1.00289762
  C -5.26266906 -0.62072058 -1.00795703
  C -7.10347715  0.69719418  0.64641830
  C -6.60998095 -0.56700932 -1.37567424
  C -7.52184487  0.08366965 -0.54928830
  O -4.40899092 -1.25571819 -1.81834535
  H  4.89425944 -4.76990180  0.14372745
  H  2.60767012 -3.90396870  0.56184778
  H  5.41524563 -1.72288137 -2.85943157
  H  3.24549693  0.13638490 -2.08786212
  H  0.74073908 -2.07146248 -1.54916970
  H -1.25485560 -2.78930919  1.28786172
  H -1.12059052 -2.78938245 -0.47349356
  H -1.12451556 -0.38347080  1.41561533
  H -0.36655795  1.05642352 -0.33639729
  H -0.52112961 -0.20173229 -1.57364165
  H  2.15167609 -2.17998730  2.04182003
  H  0.52386239 -1.63364588  2.47835837
  H  2.68716418 -0.12676157  1.08004274
  H  1.11269293  0.54377677  1.55097395
  H -3.19639919  0.33342697  1.59571392
  H -5.44703528  1.09311089  1.93182059
  H -7.84040662  1.19699197  1.26486187
  H -6.89744081 -1.04523838 -2.30369934
  H -3.50405640 -1.19988490 -1.37573470
  O  3.51534931  1.56898203 -0.99167875
  C  2.38675894  2.08049906 -1.10245007
  C  1.86734021  3.07546819 -0.20923219
  C  0.64309767  3.70012636 -0.49022846
  C  2.60139122  3.49390607  0.93637463
  C  2.11638530  4.52309262  1.73127750
  C  0.15521402  4.72802581  0.28748112
  C  0.92064389  5.15739404  1.39100824
  O  3.76991792  2.92369144  1.25808313
  H  1.73916394  1.80378829 -1.95391690
  H  0.08014223  3.36813250 -1.35986438
  H  2.68641891  4.86586079  2.58785464
  H -0.78877184  5.19430797  0.03771161
  H  3.98240766  2.27917420  0.53947675
  C -0.51218965  8.26161433  2.65117625
  C -0.52168271  7.03817782  1.76418090
  O  0.57499130  6.20086184  2.17668094
  H -1.33431920  8.92603775  2.36797939
  H  0.42880679  8.80778088  2.54108538
  H -0.63464962  7.98455521  3.70160745
  H -0.38597254  7.31802844  0.71031193
  H -1.46501077  6.48190115  1.86039612
  C -10.86027244 -0.27126326 -1.99020066
  C -9.36247474 -0.47796944 -1.97955153
  O -8.84937597  0.17716233 -0.81014392
  H -11.29467873 -0.75914033 -2.86807022
  H -11.10449305  0.79407049 -2.02802865
  H -11.31535032 -0.70093496 -1.09333107
  H -8.89586747 -0.04681074 -2.87736644
  H -9.11080502 -1.54778449 -1.93872514
  C  8.69639656 -4.07206324 -2.56227011
  C  7.40260419 -3.28871800 -2.55529869
  O  6.56036463 -3.85911871 -1.54808246
  H  9.37074924 -3.66760394 -3.32358028
  H  8.50882280 -5.12564986 -2.78796100
  H  9.19208683 -4.00799883 -1.58940756
  H  6.90155640 -3.34718312 -3.53349813
  H  7.58641734 -2.22759642 -2.32813880