81
      -1933.27691080 , 
  C  4.67987622 -3.59050197 -0.22214660
  C  5.40212950 -3.17648767 -1.35707128
  C  3.47134042 -2.99770436  0.06088999
  C  2.94097906 -1.96390998 -0.73771723
  C  3.68577231 -1.53832748 -1.87604423
  C  4.90888003 -2.17496966 -2.17785575
  O  3.26485151 -0.54191089 -2.61508851
  C  1.53637474 -1.55892617 -0.59935928
  N  0.84707887 -2.11908987  0.49775055
  N  1.15217364  0.20261545 -0.11639397
  C -0.61051841 -2.09558362  0.34389490
  C -1.17181185 -0.67337550  0.46410774
  C -0.31718742  0.31025167 -0.34387215
  C  1.29214636 -1.40088598  1.70949226
  C  1.50515156  0.09284088  1.31395184
  N -2.52193056 -0.62767518 -0.05380187
  C -3.48624870 -0.28512265  0.73352167
  C -4.85444304 -0.23111145  0.30170569
  C -5.87203676  0.14715073  1.19854834
  C -5.22081637 -0.55541386 -1.03112120
  C -7.18949820  0.20676322  0.81468606
  C -6.55754846 -0.49806546 -1.43113142
  C -7.53288368 -0.11926609 -0.51240235
  O -4.30592515 -0.92247057 -1.93563117
  H  5.06878586 -4.40181428  0.38314881
  H  2.88343500 -3.39757310  0.87946021
  H  5.43951572 -1.81497815 -3.05062128
  H  3.27156308  0.40822510 -1.81100492
  H  0.99398370 -1.57001268 -1.54846536
  H -1.06523143 -2.74510985  1.10218896
  H -0.86591629 -2.51015340 -0.63783216
  H -1.15563514 -0.36650723  1.52521884
  H -0.63797922  1.32785890 -0.09288821
  H -0.49994231  0.15233034 -1.41469613
  H  2.23263495 -1.81596574  2.07763423
  H  0.54255832 -1.52631928  2.49624984
  H  2.55499593  0.37402455  1.41640530
  H  0.89987396  0.77930076  1.91569497
  H -3.29078934 -0.01776001  1.78528086
  H -5.59875942  0.39640613  2.22144251
  H -7.97541511  0.49643519  1.50282279
  H -6.78743586 -0.75519948 -2.45748798
  H -3.41816947 -0.90619324 -1.46848850
  O  3.18079587  1.19691831 -0.98181169
  C  1.85199564  1.42155247 -0.86453956
  C  1.55402160  2.71305073 -0.14217646
  C  0.43449190  3.47806585 -0.45948473
  C  2.43312874  3.21356788  0.84761335
  C  2.11610815  4.37360848  1.54500863
  C  0.10985634  4.65112238  0.21486826
  C  0.95538650  5.08349772  1.24227780
  O  3.60226021  2.60249080  1.14379640
  H  1.33254938  1.40064562 -1.83978512
  H -0.20637735  3.15982458 -1.27939016
  H  2.79751437  4.74642292  2.30215667
  H -0.77018232  5.20992833 -0.07648252
  H  3.77157106  1.96985380  0.40016018
  C -0.37425490  8.19239054  2.63199172
  C -0.39447962  7.01381873  1.68411350
  O  0.74814207  6.20549228  1.98582384
  H -1.23386350  8.84086078  2.43686149
  H  0.54031937  8.77711222  2.49944482
  H -0.42210819  7.85364440  3.67085839
  H -0.34450790  7.35003096  0.63760093
  H -1.31297248  6.42097558  1.81168625
  C -10.78510967 -0.17220069 -2.17311870
  C -9.28484864 -0.35271033 -2.13329048
  O -8.85178213 -0.03305212 -0.80075747
  H -11.15853671 -0.40680328 -3.17453671
  H -11.05737773  0.85948959 -1.93402964
  H -11.27405995 -0.83696702 -1.45545786
  H -8.78499062  0.31557342 -2.84918567
  H -9.00303293 -1.38898049 -2.36963808
  C  8.58835343 -4.34766795 -2.71008098
  C  7.35504737 -3.47204853 -2.71040877
  O  6.57860921 -3.82910818 -1.56068194
  H  9.21485394 -4.10767882 -3.57473907
  H  8.31180221 -5.40459158 -2.76361718
  H  9.17478705 -4.18797745 -1.80077116
  H  6.75808616 -3.62765621 -3.62113882
  H  7.62579427 -2.40722630 -2.65597146