81
      -1933.28911461 , 
  C  4.86265826 -3.40156857  0.05307902
  C  5.55649877 -3.04476912 -1.14420148
  C  3.55714230 -3.04785123  0.20953157
  C  2.86205413 -2.33989495 -0.81190927
  C  3.58649851 -1.90779622 -2.00808998
  C  4.93942021 -2.34653636 -2.15575201
  O  3.04173520 -1.12475774 -2.83932985
  C  1.48470009 -2.14053822 -0.84338806
  N  0.64300693 -2.12269427  0.20744400
  N  0.74380391  0.44359635 -0.32598125
  C -0.79469935 -2.02298543 -0.08213971
  C -1.41906476 -0.65387058  0.25325548
  C -0.70563672  0.53509475 -0.41387965
  C  1.06485101 -1.36078904  1.38833450
  C  1.24686290  0.15673850  1.00817493
  N -2.79220049 -0.68039527 -0.21247848
  C -3.74123634 -0.39885718  0.61499404
  C -5.12414747 -0.38493044  0.22606645
  C -6.12787889 -0.07584536  1.16341572
  C -5.51677548 -0.67836613 -1.10633212
  C -7.45770041 -0.05409163  0.81914376
  C -6.86622938 -0.65879573 -1.46626339
  C -7.82740643 -0.34860625 -0.50794997
  O -4.61553376 -0.97944900 -2.04772411
  H  5.38886107 -3.99234514  0.79471140
  H  3.01819350 -3.40250766  1.08339718
  H  5.45447174 -2.03575831 -3.05638917
  H  2.72650401  0.28552064 -1.97225633
  H  1.03745195 -2.01979270 -1.83032467
  H -1.33134041 -2.79165124  0.49154304
  H -0.95330871 -2.24070721 -1.14349171
  H -1.39712781 -0.50745413  1.34718014
  H -1.10583158  1.45505814  0.05855259
  H -0.99170026  0.56044336 -1.47473939
  H  2.00646268 -1.74524860  1.77772881
  H  0.31389688 -1.50032356  2.17110478
  H  2.31462765  0.38650437  1.01752249
  H  0.77012565  0.77886244  1.78602143
  H -3.52161431 -0.15290533  1.66723684
  H -5.83374039  0.15121165  2.18574071
  H -8.23318810  0.18358188  1.53837262
  H -7.11657679 -0.88967825 -2.49407305
  H -3.71463755 -0.94001424 -1.60413390
  O  2.74687129  1.10881249 -1.40888829
  C  1.44603624  1.51741803 -1.06523315
  C  1.51853142  2.82626541 -0.30456377
  C  0.44201707  3.70610770 -0.36808732
  C  2.59782796  3.17184661  0.53869842
  C  2.54363843  4.32529496  1.31267867
  C  0.37154300  4.86962684  0.39370595
  C  1.43460828  5.16688724  1.25045016
  O  3.72363174  2.41835505  0.63445065
  H  0.83722940  1.67468975 -1.97218108
  H -0.37464262  3.48407705 -1.05208693
  H  3.38308333  4.58213450  1.94991306
  H -0.48743617  5.52139137  0.29781081
  H  3.69791940  1.77731586 -0.10815476
  C  0.73114089  8.32661300  2.95149122
  C  0.40827357  7.19938358  1.99532101
  O  1.49374466  6.27018095  2.05158229
  H -0.07541337  9.06629884  2.94156574
  H  1.66196471  8.82223461  2.66160034
  H  0.84355353  7.94734986  3.97121557
  H  0.29427699  7.57647899  0.96755862
  H -0.52837122  6.69687519  2.28205039
  C -11.12308621 -0.46723637 -2.07778963
  C -9.61658428 -0.59212813 -2.08622840
  O -9.15719726 -0.30365597 -0.75588397
  H -11.51685726 -0.68177869 -3.07590742
  H -11.42618163  0.54468902 -1.79494866
  H -11.56577951 -1.17410493 -1.37047292
  H -9.16277737  0.11907055 -2.79144111
  H -9.30428547 -1.60806033 -2.36825719
  C  9.00284052 -3.76414969 -2.11105425
  C  7.62906492 -3.17380973 -2.33375683
  O  6.84565864 -3.45918372 -1.16406976
  H  9.63528010 -3.56677660 -2.98195813
  H  8.94022577 -4.84631581 -1.96552351
  H  9.47677558 -3.32120841 -1.23055820
  H  7.14143041 -3.61632134 -3.21412732
  H  7.68090359 -2.08525503 -2.47896851